/*--------------------------------*- C++ -*----------------------------------*\
| =========                 |                                                 |
| \\      /  F ield         | OpenFOAM: The Open Source CFD Toolbox           |
|  \\    /   O peration     | Version:  2.2.2                                 |
|   \\  /    A nd           | Web:      www.OpenFOAM.org                      |
|    \\/     M anipulation  |                                                 |
\*---------------------------------------------------------------------------*/
FoamFile
{
    version     2.0;
    format      ascii;
    class       dictionary;
    location    "system";
    object      fvSolution;
}
// * * * * * * * * * * * * * * * * * * * * * * * * * * * * * * * * * * * * * //

solvers
{
    "(p_rgh|rho)"
    {
        solver          PCG;
        preconditioner  DIC;
        tolerance       1e-6;
        relTol          0.01;
    }

    "(p_rgh|rho)Final"
    {
        $p_rgh;
        relTol          0;
    }

    U
    {
        solver          PBiCG;
        preconditioner  DILU;
        tolerance       1e-6;
        relTol          0.1;
    }

    UFinal
    {
        $U;
        relTol          0;
    }

    tau
    {
        solver          PBiCG;
        preconditioner  DILU;
        tolerance       1e-6;
        relTol          0;
    }

    zMix
    {
        solver          PBiCG;
        preconditioner  DILU;
        tolerance       1e-6;
        relTol          0;
    }

    zMixFinal
    {
        $zMix;
        relTol          0;
    }
}

PIMPLE
{
    momentumPredictor        no;
    nOuterCorrectors          1;
    nCorrectors               2;
    nNonOrthogonalCorrectors  0;

    pMinFactor      0.1;
    pMaxFactor      2.0;
}

relaxationFactors
{
    equations
    {
        ".*"  1;
    }
}

// ************************************************************************* //
